Version 4
SHEET 1 1464 940
WIRE -96 -416 -336 -416
WIRE 96 -416 -16 -416
WIRE -1264 -336 -1264 -368
WIRE -336 -336 -336 -416
WIRE 368 -288 368 -304
WIRE 96 -272 96 -416
WIRE 336 -272 96 -272
WIRE 480 -256 400 -256
WIRE 512 -256 480 -256
WIRE -1264 -240 -1264 -256
WIRE -1264 -240 -1344 -240
WIRE 336 -240 208 -240
WIRE -1264 -224 -1264 -240
WIRE -336 -224 -336 -256
WIRE 368 -208 368 -224
WIRE -1344 -192 -1344 -240
WIRE -1264 -112 -1264 -144
WIRE 208 -80 208 -240
WIRE 272 -80 208 -80
WIRE 480 -80 480 -256
WIRE 480 -80 352 -80
WIRE -336 -48 -336 -64
WIRE -336 48 -336 32
WIRE -96 48 -336 48
WIRE 96 48 96 -272
WIRE 96 48 -16 48
WIRE 208 48 208 -80
WIRE -336 80 -336 48
WIRE -336 176 -336 160
WIRE 208 208 208 128
FLAG -1344 -192 0
FLAG -1264 -368 Vdd
FLAG 368 -208 Vdd
FLAG 368 -304 Vss
FLAG -1264 -112 Vss
FLAG -336 -224 0
FLAG 512 -256 out
FLAG -336 -416 in
FLAG 208 208 0
FLAG -336 176 0
FLAG -336 -64 Vdd
SYMBOL voltage -1264 -352 R0
SYMATTR InstName V1
SYMATTR Value 3.3
SYMBOL voltage -1264 -240 R0
SYMATTR InstName V2
SYMATTR Value 3.3
SYMBOL res 368 -96 R90
WINDOW 0 0 56 VBottom 2
WINDOW 3 32 56 VTop 2
SYMATTR InstName R1
SYMATTR Value 12k
SYMBOL Opamps\\opamp2 368 -192 M180
SYMATTR InstName U1
SYMATTR Value LM324
SYMBOL res 192 32 R0
SYMATTR InstName R2
SYMATTR Value 12k
SYMBOL res 0 -432 R90
WINDOW 0 0 56 VBottom 2
WINDOW 3 32 56 VTop 2
SYMATTR InstName R5
SYMATTR Value 1Meg
SYMBOL res 0 32 R90
WINDOW 0 0 56 VBottom 2
WINDOW 3 32 56 VTop 2
SYMATTR InstName R6
SYMATTR Value 1Meg
SYMBOL res -352 -64 R0
SYMATTR InstName R7
SYMATTR Value 51k
SYMBOL res -352 64 R0
SYMATTR InstName R8
SYMATTR Value 22k
SYMBOL Misc\\signal -336 -352 R0
SYMATTR InstName V3
SYMATTR Value SINE(0 1 1.5)
TEXT -1336 16 Left 2 !.lib opamp.lib
TEXT -1328 64 Left 2 !.tran 3
