Version 4
SHEET 1 880 680
WIRE -272 -272 -272 -304
WIRE -272 -176 -272 -192
WIRE -272 -176 -352 -176
WIRE -272 -160 -272 -176
WIRE -352 -128 -352 -176
WIRE -272 -48 -272 -80
WIRE 160 -16 -144 -16
WIRE 384 -16 240 -16
WIRE 208 144 208 128
WIRE -240 160 -368 160
WIRE -144 160 -144 -16
WIRE -144 160 -176 160
WIRE -112 160 -144 160
WIRE 32 160 -48 160
WIRE 176 160 32 160
WIRE 384 176 384 -16
WIRE 384 176 240 176
WIRE 176 192 128 192
WIRE 208 224 208 208
WIRE -368 240 -368 160
WIRE 32 288 32 160
WIRE 128 336 128 192
WIRE 224 336 128 336
WIRE 384 336 384 176
WIRE 384 336 304 336
WIRE -368 352 -368 320
WIRE 128 368 128 336
WIRE 32 480 32 368
WIRE 128 480 128 448
FLAG 128 480 0
FLAG 32 480 0
FLAG -352 -128 0
FLAG -272 -304 Vdd
FLAG 208 128 Vdd
FLAG 208 224 Vss
FLAG -272 -48 Vss
FLAG -368 352 0
FLAG 384 176 out
FLAG -368 160 in
SYMBOL Opamps\\TLC2254 208 112 R0
SYMATTR InstName U1
SYMATTR SpiceModel TLC2254
SYMBOL res 48 384 R180
WINDOW 0 36 76 Left 2
WINDOW 3 36 40 Left 2
SYMATTR InstName R1
SYMATTR Value 13910.6521
SYMBOL res 144 0 R270
WINDOW 0 32 56 VTop 2
WINDOW 3 0 56 VBottom 2
SYMATTR InstName R2
SYMATTR Value 18209.28
SYMBOL res 112 352 R0
SYMATTR InstName R3
SYMATTR Value 27821.3042
SYMBOL res 320 320 R90
WINDOW 0 0 56 VBottom 2
WINDOW 3 32 56 VTop 2
SYMATTR InstName R4
SYMATTR Value 27821.3042
SYMBOL cap -176 144 R90
WINDOW 0 0 32 VBottom 2
WINDOW 3 32 32 VTop 2
SYMATTR InstName C1
SYMATTR Value 200µ
SYMBOL cap -48 144 R90
WINDOW 0 0 32 VBottom 2
WINDOW 3 32 32 VTop 2
SYMATTR InstName C2
SYMATTR Value 200µ
SYMBOL voltage -272 -288 R0
SYMATTR InstName V1
SYMATTR Value 3
SYMBOL voltage -272 -176 R0
SYMATTR InstName V2
SYMATTR Value 3
SYMBOL Misc\\signal -368 224 R0
WINDOW 123 0 0 Left 2
WINDOW 39 0 0 Left 2
SYMATTR InstName V3
SYMATTR Value AC 1
TEXT -96 -224 Left 2 !.ac lin 1000 0.01 0.2
TEXT -96 -264 Left 2 !.include TLC2254.cir
