Version 4
SHEET 1 880 680
WIRE -352 -240 -352 -272
WIRE -352 -144 -352 -160
WIRE -352 -144 -432 -144
WIRE -352 -128 -352 -144
WIRE -432 -96 -432 -144
WIRE -352 -16 -352 -48
WIRE 160 -16 -144 -16
WIRE 384 -16 240 -16
WIRE 176 144 176 128
WIRE -240 160 -368 160
WIRE -144 160 -144 -16
WIRE -144 160 -176 160
WIRE -112 160 -144 160
WIRE 32 160 -48 160
WIRE 144 160 32 160
WIRE 384 176 384 -16
WIRE 384 176 208 176
WIRE 144 192 128 192
WIRE 176 224 176 208
WIRE -368 240 -368 160
WIRE 32 288 32 160
WIRE 128 336 128 192
WIRE 384 336 384 176
WIRE 384 336 128 336
WIRE -368 352 -368 320
WIRE 32 480 32 368
FLAG 32 480 0
FLAG -432 -96 0
FLAG -352 -272 Vdd
FLAG 176 224 Vdd
FLAG 176 128 Vss
FLAG -352 -16 Vss
FLAG -368 352 0
FLAG -368 160 in
FLAG 384 176 out
SYMBOL Opamps\\TLC2254 176 240 M180
SYMATTR InstName U1
SYMATTR SpiceModel TLC2254
SYMBOL res 48 384 R180
WINDOW 0 36 76 Left 2
WINDOW 3 36 40 Left 2
SYMATTR InstName R1
SYMATTR Value 91k
SYMBOL res 144 0 R270
WINDOW 0 32 56 VTop 2
WINDOW 3 0 56 VBottom 2
SYMATTR InstName R2
SYMATTR Value 47k
SYMBOL cap -176 144 R90
WINDOW 0 0 32 VBottom 2
WINDOW 3 32 32 VTop 2
SYMATTR InstName C1
SYMATTR Value 47µ
SYMBOL cap -48 144 R90
WINDOW 0 0 32 VBottom 2
WINDOW 3 32 32 VTop 2
SYMATTR InstName C2
SYMATTR Value 47µ
SYMBOL voltage -352 -256 R0
SYMATTR InstName V1
SYMATTR Value 3
SYMBOL voltage -352 -144 R0
SYMATTR InstName V2
SYMATTR Value 3
SYMBOL Misc\\signal -368 224 R0
WINDOW 123 0 0 Left 2
WINDOW 39 0 0 Left 2
SYMATTR InstName V3
SYMATTR Value AC 1
TEXT -176 -192 Left 2 !.ac lin 1000 0.01 0.2
TEXT -176 -232 Left 2 !.include TLC2254.cir
