Version 4
SHEET 1 1356 680
WIRE -32 16 -48 16
WIRE 64 16 48 16
WIRE -80 32 -528 32
WIRE -176 80 -416 80
WIRE 64 80 64 16
WIRE 64 80 -16 80
WIRE -80 96 -80 32
WIRE -416 112 -416 80
WIRE -176 112 -176 80
WIRE -128 112 -176 112
WIRE -528 128 -528 32
WIRE -128 128 -128 112
WIRE -96 128 -128 128
WIRE -48 128 -48 16
WIRE -16 144 -16 80
WIRE 64 160 16 160
WIRE -176 192 -208 192
WIRE -96 192 -176 192
WIRE -528 240 -528 208
WIRE -528 240 -608 240
WIRE -416 240 -416 192
WIRE -416 240 -528 240
WIRE -288 240 -288 192
WIRE -288 240 -416 240
WIRE -32 240 -32 192
WIRE -32 240 -288 240
WIRE -528 272 -528 240
WIRE -608 288 -608 240
WIRE -528 384 -528 352
WIRE -80 384 -80 224
WIRE -80 384 -528 384
FLAG 64 160 out
IOPIN 64 160 Out
FLAG -608 288 0
SYMBOL Opamps\\ad620 -48 160 R0
SYMATTR InstName U1
SYMBOL voltage -528 112 R0
WINDOW 123 0 0 Left 2
WINDOW 39 0 0 Left 2
SYMATTR InstName V1
SYMATTR Value 3
SYMBOL res 64 0 R90
WINDOW 0 0 56 VBottom 2
WINDOW 3 32 56 VTop 2
SYMATTR InstName Rg
SYMATTR Value 500
SYMBOL Misc\\signal -176 208 R180
WINDOW 0 34 78 Left 2
WINDOW 3 -1060 -416 Left 2
WINDOW 123 0 0 Left 2
WINDOW 39 0 0 Left 2
SYMATTR InstName EKG
SYMATTR Value PWL(0 0 0.05 0 0.15 0.0003 0.25 0 0.3 0 0.35 0.0025 0.4 -0.001 0.43 0 0.52 0 0.58 0.0004 0.65 0)
SYMBOL res -432 96 R0
SYMATTR InstName R2
SYMATTR Value 500k
SYMBOL voltage -528 256 R0
SYMATTR InstName V3
SYMATTR Value 3
SYMBOL res -192 176 R90
WINDOW 0 0 56 VBottom 2
WINDOW 3 32 56 VTop 2
SYMATTR InstName R1
SYMATTR Value 500k
TEXT -624 512 Left 2 !.include ad620.cir
TEXT -624 544 Left 2 !.tran .7
TEXT -624 576 Left 2 !.op
