Version 4
SHEET 1 1356 680
WIRE -592 0 -688 0
WIRE -80 0 -592 0
WIRE -592 16 -592 0
WIRE -32 16 -48 16
WIRE 64 16 48 16
WIRE -176 80 -304 80
WIRE 64 80 64 16
WIRE 64 80 -16 80
WIRE -80 96 -80 0
WIRE -176 112 -176 80
WIRE -128 112 -176 112
WIRE -688 128 -688 0
WIRE -128 128 -128 112
WIRE -96 128 -128 128
WIRE -48 128 -48 16
WIRE -592 144 -592 96
WIRE -464 144 -592 144
WIRE -432 144 -464 144
WIRE -304 144 -304 80
WIRE -304 144 -352 144
WIRE -16 144 -16 80
WIRE 64 160 16 160
WIRE -592 176 -592 144
WIRE -96 192 -176 192
WIRE -464 240 -464 144
WIRE -32 240 -32 192
WIRE -32 240 -464 240
WIRE -688 272 -688 208
WIRE -592 272 -592 256
WIRE -592 272 -688 272
WIRE -80 272 -80 224
WIRE -80 272 -592 272
WIRE -688 320 -688 272
FLAG 64 160 out
IOPIN 64 160 Out
FLAG -688 320 0
SYMBOL Opamps\\ad620 -48 160 R0
SYMATTR InstName U1
SYMBOL voltage -688 112 R0
WINDOW 123 0 0 Left 2
WINDOW 39 0 0 Left 2
SYMATTR InstName V1
SYMATTR Value 9
SYMBOL res 64 0 R90
WINDOW 0 0 56 VBottom 2
WINDOW 3 32 56 VTop 2
SYMATTR InstName Rg
SYMATTR Value 1k
SYMBOL Misc\\signal -176 208 R180
WINDOW 0 34 78 Left 2
WINDOW 3 -1060 -416 Left 2
WINDOW 123 0 0 Left 2
WINDOW 39 0 0 Left 2
SYMATTR InstName EKG
SYMATTR Value PWL(0 0 0.05 0 0.15 0.0003 0.25 0 0.3 0 0.35 0.0025 0.4 -0.001 0.43 0 0.52 0 0.58 0.0004 0.65 0)
SYMBOL res -336 128 R90
WINDOW 0 0 56 VBottom 2
WINDOW 3 32 56 VTop 2
SYMATTR InstName R2
SYMATTR Value 1000k
SYMBOL res -608 0 R0
SYMATTR InstName R1
SYMATTR Value 47k
SYMBOL res -608 160 R0
SYMATTR InstName R3
SYMATTR Value 47k
TEXT -624 512 Left 2 !.include ad620.cir
TEXT -624 544 Left 2 !.tran .7
TEXT -624 576 Left 2 !.op
